IEEETestCases/37Bus/ieee37_VLL.Txt

SYMMETRICAL COMPONENT PHASE-PHASE VOLTAGES BY BUS (for 3-phase buses)

Bus        Mag:   V1 (kV)    p.u.     V2 (kV)   %V2/V1    V0 (kV)    %V0/V1

sourcebus       230          1  0.0005829  0.0002534 3.254E-014 1.415E-014
799           4.472     0.9316    0.08026      1.795 4.547E-016 1.017E-014
709            4.69      0.977     0.1386      2.955 6.431E-016 1.371E-014
775           0.469      0.977    0.01386      2.955 6.029E-017 1.286E-014
701           4.779     0.9957     0.1147        2.4 7.626E-016 1.596E-014
702           4.746     0.9887     0.1218      2.566 8.879E-016 1.871E-014
705            4.74     0.9876     0.1213       2.56 6.431E-016 1.357E-014
713           4.738      0.987     0.1214      2.562 5.684E-016  1.2E-014
703           4.718     0.9828     0.1302      2.759 7.626E-016 1.617E-014
727           4.713     0.9819     0.1313      2.785 8.198E-016 1.739E-014
730           4.696     0.9783     0.1369      2.915 5.084E-016 1.083E-014
704           4.728      0.985     0.1191      2.519 5.684E-016 1.202E-014
714           4.727     0.9848     0.1192      2.521 4.099E-016 8.671E-015
720           4.717     0.9826     0.1161      2.461 8.879E-016 1.883E-014
742           4.738     0.9871     0.1195      2.522 7.626E-016 1.61E-014
712           4.739     0.9873     0.1224      2.584 7.28E-016 1.536E-014
706           4.716     0.9824     0.1152      2.443 4.099E-016 8.693E-015
725           4.715     0.9822     0.1144      2.426 1.048E-015 2.223E-014
707           4.703     0.9798     0.1057      2.248 5.684E-016 1.209E-014
724           4.701     0.9793     0.1036      2.203 8.198E-016 1.744E-014
722           4.701     0.9795     0.1047      2.228 5.084E-016 1.081E-014
708            4.68     0.9751     0.1423       3.04 6.431E-016 1.374E-014
733           4.672     0.9733     0.1455      3.116 8.198E-016 1.755E-014
732           4.679     0.9748      0.143      3.055 5.084E-016 1.087E-014
731           4.687     0.9765     0.1368      2.918 8.198E-016 1.749E-014
710           4.653     0.9695     0.1515      3.257 6.431E-016 1.382E-014
735           4.652     0.9692     0.1524      3.276 8.198E-016 1.762E-014
736            4.65     0.9686     0.1478      3.178 7.28E-016 1.566E-014
711           4.641      0.967     0.1593      3.433 6.431E-016 1.386E-014
741           4.641     0.9668     0.1599      3.445 8.198E-016 1.767E-014
740            4.64     0.9667     0.1601       3.45 7.28E-016 1.569E-014
718           4.724     0.9842     0.1201      2.542 6.431E-016 1.361E-014
744           4.711     0.9814     0.1315      2.792 7.28E-016 1.545E-014
734           4.658     0.9705     0.1509       3.24 5.684E-016 1.22E-014
737           4.648     0.9683     0.1554      3.342 7.626E-016 1.641E-014
738           4.644     0.9674     0.1576      3.394 6.431E-016 1.385E-014
728           4.709      0.981     0.1316      2.794 9.647E-016 2.049E-014
729            4.71     0.9812     0.1318      2.799 7.28E-016 1.546E-014
799r          4.845      1.009     0.1003       2.07 5.684E-016 1.173E-014
